Input Parameters:
   integrator                     = md
   tinit                          = 0
   dt                             = 0.002
   nsteps                         = 200000000
   init-step                      = 0
   simulation-part                = 1
   comm-mode                      = Linear
   nstcomm                        = 100
   bd-fric                        = 0
   ld-seed                        = -598982415
   emtol                          = 10
   emstep                         = 0.01
   niter                          = 20
   fcstep                         = 0
   nstcgsteep                     = 1000
   nbfgscorr                      = 10
   rtpi                           = 0.05
   nstxout                        = 1000000
   nstvout                        = 1000000
   nstfout                        = 0
   nstlog                         = 1000000
   nstcalcenergy                  = 100
   nstenergy                      = 1000000
   nstxout-compressed             = 1000000
   compressed-x-precision         = 1000
   cutoff-scheme                  = Verlet
   nstlist                        = 25
   ns-type                        = Grid
   pbc                            = xyz
   periodic-molecules             = false
   verlet-buffer-tolerance        = 0.005
   rlist                          = 1.219
   coulombtype                    = PME
   coulomb-modifier               = Potential-shift
   rcoulomb-switch                = 0
   rcoulomb                       = 1.2
   epsilon-r                      = 1
   epsilon-rf                     = inf
   vdw-type                       = Cut-off
   vdw-modifier                   = Potential-shift
   rvdw-switch                    = 0
   rvdw                           = 1.2
   DispCorr                       = No
   table-extension                = 1
   fourierspacing                 = 0.16
   fourier-nx                     = 60
   fourier-ny                     = 60
   fourier-nz                     = 108
   pme-order                      = 4
   ewald-rtol                     = 1e-05
   ewald-rtol-lj                  = 0.001
   lj-pme-comb-rule               = Geometric
   ewald-geometry                 = 0
   epsilon-surface                = 0
   implicit-solvent               = No
   gb-algorithm                   = Still
   nstgbradii                     = 1
   rgbradii                       = 1
   gb-epsilon-solvent             = 80
   gb-saltconc                    = 0
   gb-obc-alpha                   = 1
   gb-obc-beta                    = 0.8
   gb-obc-gamma                   = 4.85
   gb-dielectric-offset           = 0.009
   sa-algorithm                   = Ace-approximation
   sa-surface-tension             = 2.05016
   tcoupl                         = V-rescale
   nsttcouple                     = 10
   nh-chain-length                = 0
   print-nose-hoover-chain-variables = false
   pcoupl                         = Parrinello-Rahman
   pcoupltype                     = Isotropic
   nstpcouple                     = 10
   tau-p                          = 1
   compressibility (3x3):
      compressibility[    0]={ 4.50000e-05,  0.00000e+00,  0.00000e+00}
      compressibility[    1]={ 0.00000e+00,  4.50000e-05,  0.00000e+00}
      compressibility[    2]={ 0.00000e+00,  0.00000e+00,  4.50000e-05}
   ref-p (3x3):
      ref-p[    0]={ 1.00000e+00,  0.00000e+00,  0.00000e+00}
      ref-p[    1]={ 0.00000e+00,  1.00000e+00,  0.00000e+00}
      ref-p[    2]={ 0.00000e+00,  0.00000e+00,  1.00000e+00}
   refcoord-scaling               = No
   posres-com (3):
      posres-com[0]= 0.00000e+00
      posres-com[1]= 0.00000e+00
      posres-com[2]= 0.00000e+00
   posres-comB (3):
      posres-comB[0]= 0.00000e+00
      posres-comB[1]= 0.00000e+00
      posres-comB[2]= 0.00000e+00
   QMMM                           = false
   QMconstraints                  = 0
   QMMMscheme                     = 0
   MMChargeScaleFactor            = 1
qm-opts:
   ngQM                           = 0
   constraint-algorithm           = Lincs
   continuation                   = true
   Shake-SOR                      = false
   shake-tol                      = 0.0001
   lincs-order                    = 4
   lincs-iter                     = 1
   lincs-warnangle                = 30
   nwall                          = 0
   wall-type                      = 9-3
   wall-r-linpot                  = -1
   wall-atomtype[0]               = -1
   wall-atomtype[1]               = -1
   wall-density[0]                = 0
   wall-density[1]                = 0
   wall-ewald-zfac                = 3
   pull                           = false
   rotation                       = false
   interactiveMD                  = false
   disre                          = No
   disre-weighting                = Conservative
   disre-mixed                    = false
   dr-fc                          = 1000
   dr-tau                         = 0
   nstdisreout                    = 100
   orire-fc                       = 0
   orire-tau                      = 0
   nstorireout                    = 100
   free-energy                    = no
   cos-acceleration               = 0
   deform (3x3):
      deform[    0]={ 0.00000e+00,  0.00000e+00,  0.00000e+00}
      deform[    1]={ 0.00000e+00,  0.00000e+00,  0.00000e+00}
      deform[    2]={ 0.00000e+00,  0.00000e+00,  0.00000e+00}
   simulated-tempering            = false
   E-x:
      n = 0
   E-xt:
      n = 0
   E-y:
      n = 0
   E-yt:
      n = 0
   E-z:
      n = 0
   E-zt:
      n = 0
   swapcoords                     = no
   userint1                       = 0
   userint2                       = 0
   userint3                       = 0
   userint4                       = 0
   userreal1                      = 0
   userreal2                      = 0
   userreal3                      = 0
   userreal4                      = 0
grpopts:
   nrdf:     65998.9      113818     89.9985     2609.96
   ref-t:         380         380         380         380
   tau-t:         0.1         0.1         0.1         0.1
annealing:          No          No          No          No
annealing-npoints:           0           0           0           0
   acc:	           0           0           0
   nfreeze:           N           N           N
   energygrp-flags[  0]: 0 0 0 0
   energygrp-flags[  1]: 0 0 0 0
   energygrp-flags[  2]: 0 0 0 0
   energygrp-flags[  3]: 0 0 0 0

Initializing Domain Decomposition on 256 ranks
Dynamic load balancing: auto
Initial maximum inter charge-group distances:
    two-body bonded interactions: 0.527 nm, Exclusion, atoms 6222 6223
  multi-body bonded interactions: 0.439 nm, Proper Dih., atoms 109815 109844
Minimum cell size due to bonded interactions: 0.482 nm
Maximum distance for 5 constraints, at 120 deg. angles, all-trans: 0.785 nm
Estimated maximum distance required for P-LINCS: 0.785 nm
This distance will limit the DD cell size, you can override this with -rcon
Guess for relative PME load: 0.14
Will use 192 particle-particle and 64 PME only ranks
This is a guess, check the performance at the end of the log file
Using 64 separate PME ranks, as guessed by mdrun
Scaling the initial minimum size with 1/0.8 (option -dds) = 1.25
Optimizing the DD grid for 192 cells with a minimum initial size of 0.981 nm
The maximum allowed number of cells is: X 9 Y 9 Z 17
Domain decomposition grid 8 x 4 x 6, separate PME ranks 64
PME domain decomposition: 8 x 8 x 1
Interleaving PP and PME ranks
This rank does only particle-particle work.

Domain decomposition rank 0, coordinates 0 0 0

The initial number of communication pulses is: X 2 Y 1 Z 1
The initial domain decomposition cell size is: X 1.12 nm Y 2.25 nm Z 2.83 nm

The maximum allowed distance for charge groups involved in interactions is:
                 non-bonded interactions           1.219 nm
(the following are initial values, they could change due to box deformation)
            two-body bonded interactions  (-rdd)   1.219 nm
          multi-body bonded interactions  (-rdd)   1.125 nm
              virtual site constructions  (-rcon)  1.125 nm
  atoms separated by up to 5 constraints  (-rcon)  1.125 nm

When dynamic load balancing gets turned on, these settings will change to:
The maximum number of communication pulses is: X 2 Y 2 Z 2
The minimum size for domain decomposition cells is 0.785 nm
The requested allowed shrink of DD cells (option -dds) is: 0.80
The allowed shrink of domain decomposition cells is: X 0.70 Y 0.35 Z 0.28
The maximum allowed distance for charge groups involved in interactions is:
                 non-bonded interactions           1.219 nm
            two-body bonded interactions  (-rdd)   1.219 nm
          multi-body bonded interactions  (-rdd)   0.785 nm
              virtual site constructions  (-rcon)  0.785 nm
  atoms separated by up to 5 constraints  (-rcon)  0.785 nm

Using two step summing over 16 groups of on average 12.0 ranks

Using 256 MPI processes
Using 1 OpenMP thread per MPI process

Will do PME sum in reciprocal space for electrostatic interactions.

Will do ordinary reciprocal space Ewald sum.
Using a Gaussian width (1/beta) of 0.384195 nm for Ewald
Cut-off's:   NS: 1.219   Coulomb: 1.2   LJ: 1.2
System total charge: 0.000
Generated table with 1109 data points for 1-4 COUL.
Tabscale = 500 points/nm
Generated table with 1109 data points for 1-4 LJ6.
Tabscale = 500 points/nm
Generated table with 1109 data points for 1-4 LJ12.
Tabscale = 500 points/nm
Potential shift: LJ r^-12: -1.122e-01 r^-6: -3.349e-01, Ewald -1.000e-05
Initialized non-bonded Ewald correction tables, spacing: 1.02e-03 size: 1176

Using SIMD 4x4 non-bonded kernels

Using full Lennard-Jones parameter combination matrix

Non-default thread affinity set probably by the OpenMP library,
disabling internal thread affinity

Initializing Parallel LINear Constraint Solver

The number of constraints is 34440
There are inter charge-group constraints,
will communicate selected coordinates each lincs iteration

Linking all bonded interactions to atoms
There are 18970 inter charge-group virtual sites,
will an extra communication step for selected coordinates and forces

Intra-simulation communication will occur every 5 steps.
Center of mass motion removal mode is Linear
We have the following groups for center of mass motion removal:
  0:  rest

There are: 91290 Atoms
There are: 18970 VSites
Atom distribution over 192 domains: av 574 stddev 214 min 28 max 912
Initial temperature: 378.915 K

Started mdrun on rank 0 Wed Jun 26 21:41:31 2019
           Step           Time
              0        0.00000

   Energies (kJ/mol)
       G96Angle    Proper Dih.  Improper Dih.          LJ-14     Coulomb-14
    4.16814e+04    7.02944e+02    3.61284e+04   -5.44414e+02   -1.54219e+03
        LJ (SR)   Coulomb (SR)   Coul. recip.      Potential    Kinetic En.
    2.13362e+04   -8.21651e+05    9.76396e+03   -7.14125e+05    2.87547e+05
   -4.26578e+05    3.78967e+02   -1.80185e+02    1.72823e-05

	<====  A V E R A G E S  ====>

	Statistics over 345855677 steps using 3458557 frames

   Energies (kJ/mol)
       G96Angle    Proper Dih.  Improper Dih.          LJ-14     Coulomb-14
    4.14515e+04    7.13844e+02    3.52677e+04   -5.39930e+02   -1.54305e+03
        LJ (SR)   Coulomb (SR)   Coul. recip.      Potential    Kinetic En.
    1.95735e+04   -8.28551e+05    9.50257e+03   -7.24125e+05    2.88299e+05
   Total Energy    Temperature Pressure (bar)   Constr. rmsd
   -4.35826e+05    3.79958e+02    1.58983e+00    0.00000e+00

          Box-X          Box-Y          Box-Z
    8.74695e+00    8.74695e+00    1.65220e+01

   Total Virial (kJ/mol)
    9.60628e+04    1.36488e-01    2.43373e-01
    1.07014e-01    9.60602e+04   -9.99237e-01
    2.54764e-01   -9.49019e-01    9.60002e+04

   Pressure (bar)
    7.58189e-01    2.42523e-03   -1.70661e-03
    3.20042e-03    8.26943e-01    2.66962e-02
   -2.00547e-03    2.53769e-02    3.18435e+00

  Epot (kJ/mol)        Coul-SR          LJ-SR        Coul-14          LJ-14
        LUT-LUT   -2.68706e+04   -6.31638e+04    0.00000e+00    0.00000e+00
        LUT-SOL   -6.34551e+04   -2.01079e+04    0.00000e+00    0.00000e+00
         LUT-CL   -5.28574e+01   -2.54958e+01    0.00000e+00    0.00000e+00
       LUT-_WEO   -3.01135e+02   -2.62901e+03    0.00000e+00    0.00000e+00
        SOL-SOL   -7.26817e+05    1.06186e+05    0.00000e+00    0.00000e+00
         SOL-CL   -1.27920e+04    1.24421e+03    0.00000e+00    0.00000e+00
       SOL-_WEO   -7.17101e+02   -1.33721e+03    0.00000e+00    0.00000e+00
          CL-CL   -6.11837e+03   -9.88565e-02    0.00000e+00    0.00000e+00
        CL-_WEO   -1.92870e+01   -3.41001e+00    0.00000e+00    0.00000e+00
      _WEO-_WEO    8.59272e+03   -5.90041e+02   -1.54305e+03   -5.39930e+02

          T-LUT          T-SOL           T-CL         T-_WEO
    3.79869e+02    3.80014e+02    3.79439e+02    3.79787e+02
