Input Parameters:
   integrator                     = md
   tinit                          = 0
   dt                             = 0.002
   nsteps                         = 300000
   init-step                      = 0
   simulation-part                = 1
   comm-mode                      = Linear
   nstcomm                        = 100
   bd-fric                        = 0
   ld-seed                        = 1133201009
   emtol                          = 10
   emstep                         = 0.01
   niter                          = 20
   fcstep                         = 0
   nstcgsteep                     = 1000
   nbfgscorr                      = 10
   rtpi                           = 0.05
   nstxout                        = 1000
   nstvout                        = 1000
   nstfout                        = 0
   nstlog                         = 1000
   nstcalcenergy                  = 100
   nstenergy                      = 1000
   nstxout-compressed             = 1000
   compressed-x-precision         = 1000
   cutoff-scheme                  = Verlet
   nstlist                        = 25
   ns-type                        = Grid
   pbc                            = xyz
   periodic-molecules             = false
   verlet-buffer-tolerance        = 0.005
   rlist                          = 1.223
   coulombtype                    = PME
   coulomb-modifier               = Potential-shift
   rcoulomb-switch                = 0
   rcoulomb                       = 1.2
   epsilon-r                      = 1
   epsilon-rf                     = inf
   vdw-type                       = Cut-off
   vdw-modifier                   = Potential-shift
   rvdw-switch                    = 0
   rvdw                           = 1.2
   DispCorr                       = No
   table-extension                = 1
   fourierspacing                 = 0.16
   fourier-nx                     = 56
   fourier-ny                     = 56
   fourier-nz                     = 104
   pme-order                      = 4
   ewald-rtol                     = 1e-05
   ewald-rtol-lj                  = 0.001
   lj-pme-comb-rule               = Geometric
   ewald-geometry                 = 0
   epsilon-surface                = 0
   implicit-solvent               = No
   gb-algorithm                   = Still
   nstgbradii                     = 1
   rgbradii                       = 1
   gb-epsilon-solvent             = 80
   gb-saltconc                    = 0
   gb-obc-alpha                   = 1
   gb-obc-beta                    = 0.8
   gb-obc-gamma                   = 4.85
   gb-dielectric-offset           = 0.009
   sa-algorithm                   = Ace-approximation
   sa-surface-tension             = 2.05016
   tcoupl                         = V-rescale
   nsttcouple                     = 10
   nh-chain-length                = 0
   print-nose-hoover-chain-variables = false
   pcoupl                         = Parrinello-Rahman
   pcoupltype                     = Isotropic
   nstpcouple                     = 10
   tau-p                          = 1
   compressibility (3x3):
      compressibility[    0]={ 4.50000e-05,  0.00000e+00,  0.00000e+00}
      compressibility[    1]={ 0.00000e+00,  4.50000e-05,  0.00000e+00}
      compressibility[    2]={ 0.00000e+00,  0.00000e+00,  4.50000e-05}
   ref-p (3x3):
      ref-p[    0]={ 1.00000e+00,  0.00000e+00,  0.00000e+00}
      ref-p[    1]={ 0.00000e+00,  1.00000e+00,  0.00000e+00}
      ref-p[    2]={ 0.00000e+00,  0.00000e+00,  1.00000e+00}
   refcoord-scaling               = No
   posres-com (3):
      posres-com[0]= 0.00000e+00
      posres-com[1]= 0.00000e+00
      posres-com[2]= 0.00000e+00
   posres-comB (3):
      posres-comB[0]= 0.00000e+00
      posres-comB[1]= 0.00000e+00
      posres-comB[2]= 0.00000e+00
   QMMM                           = false
   QMconstraints                  = 0
   QMMMscheme                     = 0
   MMChargeScaleFactor            = 1
qm-opts:
   ngQM                           = 0
   constraint-algorithm           = Lincs
   continuation                   = true
   Shake-SOR                      = false
   shake-tol                      = 0.0001
   lincs-order                    = 4
   lincs-iter                     = 1
   lincs-warnangle                = 30
   nwall                          = 0
   wall-type                      = 9-3
   wall-r-linpot                  = -1
   wall-atomtype[0]               = -1
   wall-atomtype[1]               = -1
   wall-density[0]                = 0
   wall-density[1]                = 0
   wall-ewald-zfac                = 3
   pull                           = false
   rotation                       = false
   interactiveMD                  = false
   disre                          = No
   disre-weighting                = Conservative
   disre-mixed                    = false
   dr-fc                          = 1000
   dr-tau                         = 0
   nstdisreout                    = 100
   orire-fc                       = 0
   orire-tau                      = 0
   nstorireout                    = 100
   free-energy                    = no
   cos-acceleration               = 0
   deform (3x3):
      deform[    0]={ 0.00000e+00,  0.00000e+00,  0.00000e+00}
      deform[    1]={ 0.00000e+00,  0.00000e+00,  0.00000e+00}
      deform[    2]={ 0.00000e+00,  0.00000e+00,  0.00000e+00}
   simulated-tempering            = false
   E-x:
      n = 0
   E-xt:
      n = 0
   E-y:
      n = 0
   E-yt:
      n = 0
   E-z:
      n = 0
   E-zt:
      n = 0
   swapcoords                     = no
   userint1                       = 0
   userint2                       = 0
   userint3                       = 0
   userint4                       = 0
   userreal1                      = 0
   userreal2                      = 0
   userreal3                      = 0
   userreal4                      = 0
grpopts:
   nrdf:     65998.9      113818     89.9985     2609.96
   ref-t:         380         380         380         380
   tau-t:         0.1         0.1         0.1         0.1
annealing:          No          No          No          No
annealing-npoints:           0           0           0           0
   acc:	           0           0           0
   nfreeze:           N           N           N
   energygrp-flags[  0]: 0 0 0 0
   energygrp-flags[  1]: 0 0 0 0
   energygrp-flags[  2]: 0 0 0 0
   energygrp-flags[  3]: 0 0 0 0

Initializing Domain Decomposition on 64 ranks
Dynamic load balancing: auto
Initial maximum inter charge-group distances:
    two-body bonded interactions: 0.525 nm, Exclusion, atoms 8587 8588
  multi-body bonded interactions: 0.441 nm, Proper Dih., atoms 109500 109529
Minimum cell size due to bonded interactions: 0.485 nm
Maximum distance for 5 constraints, at 120 deg. angles, all-trans: 0.785 nm
Estimated maximum distance required for P-LINCS: 0.785 nm
This distance will limit the DD cell size, you can override this with -rcon
Guess for relative PME load: 0.12
Will use 56 particle-particle and 8 PME only ranks
This is a guess, check the performance at the end of the log file
Using 8 separate PME ranks, as guessed by mdrun
Scaling the initial minimum size with 1/0.8 (option -dds) = 1.25
Optimizing the DD grid for 56 cells with a minimum initial size of 0.981 nm
The maximum allowed number of cells is: X 8 Y 8 Z 16
Domain decomposition grid 4 x 2 x 7, separate PME ranks 8
PME domain decomposition: 4 x 2 x 1
Interleaving PP and PME ranks
This rank does only particle-particle work.

Domain decomposition rank 0, coordinates 0 0 0

The initial number of communication pulses is: X 1 Y 1 Z 1
The initial domain decomposition cell size is: X 2.18 nm Y 4.37 nm Z 2.36 nm

The maximum allowed distance for charge groups involved in interactions is:
                 non-bonded interactions           1.223 nm
(the following are initial values, they could change due to box deformation)
            two-body bonded interactions  (-rdd)   1.223 nm
          multi-body bonded interactions  (-rdd)   1.223 nm
              virtual site constructions  (-rcon)  2.184 nm
  atoms separated by up to 5 constraints  (-rcon)  2.184 nm

When dynamic load balancing gets turned on, these settings will change to:
The maximum number of communication pulses is: X 1 Y 1 Z 1
The minimum size for domain decomposition cells is 1.223 nm
The requested allowed shrink of DD cells (option -dds) is: 0.80
The allowed shrink of domain decomposition cells is: X 0.56 Y 0.28 Z 0.52
The maximum allowed distance for charge groups involved in interactions is:
                 non-bonded interactions           1.223 nm
            two-body bonded interactions  (-rdd)   1.223 nm
          multi-body bonded interactions  (-rdd)   1.223 nm
              virtual site constructions  (-rcon)  1.223 nm
  atoms separated by up to 5 constraints  (-rcon)  1.223 nm

Using two step summing over 4 groups of on average 14.0 ranks

Using 64 MPI processes
Using 1 OpenMP thread per MPI process

Will do PME sum in reciprocal space for electrostatic interactions.

Will do ordinary reciprocal space Ewald sum.
Using a Gaussian width (1/beta) of 0.384195 nm for Ewald
Cut-off's:   NS: 1.223   Coulomb: 1.2   LJ: 1.2
System total charge: 0.000
Generated table with 1111 data points for 1-4 COUL.
Tabscale = 500 points/nm
Generated table with 1111 data points for 1-4 LJ6.
Tabscale = 500 points/nm
Generated table with 1111 data points for 1-4 LJ12.
Tabscale = 500 points/nm
Potential shift: LJ r^-12: -1.122e-01 r^-6: -3.349e-01, Ewald -1.000e-05
Initialized non-bonded Ewald correction tables, spacing: 1.02e-03 size: 1176

Using SIMD 4x4 non-bonded kernels

Using full Lennard-Jones parameter combination matrix

Non-default thread affinity set probably by the OpenMP library,
disabling internal thread affinity

Initializing Parallel LINear Constraint Solver

The number of constraints is 34440
There are inter charge-group constraints,
will communicate selected coordinates each lincs iteration

Linking all bonded interactions to atoms
There are 18970 inter charge-group virtual sites,
will an extra communication step for selected coordinates and forces

Intra-simulation communication will occur every 5 steps.
Center of mass motion removal mode is Linear
We have the following groups for center of mass motion removal:
  0:  rest

There are: 91290 Atoms
There are: 18970 VSites
Atom distribution over 56 domains: av 1968 stddev 520 min 1251 max 2728
Initial temperature: 379.688 K

Started mdrun on rank 0 Tue Feb 11 13:53:03 2020
           Step           Time
              0        0.00000

   Energies (kJ/mol)
       G96Angle    Proper Dih.  Improper Dih.          LJ-14     Coulomb-14
    4.21199e+04    6.76242e+02    3.54207e+04   -5.33521e+02   -1.56123e+03
        LJ (SR)   Coulomb (SR)   Coul. recip.      Potential    Kinetic En.
    1.88046e+04   -8.27026e+05    9.60877e+03   -7.22491e+05    2.90419e+05
   -4.32072e+05    3.82752e+02    6.85656e+01    2.07995e-05

	<====  A V E R A G E S  ====>

	Statistics over 300001 steps using 3001 frames

   Energies (kJ/mol)
       G96Angle    Proper Dih.  Improper Dih.          LJ-14     Coulomb-14
    4.14340e+04    7.16375e+02    3.52782e+04   -5.39996e+02   -1.54302e+03
        LJ (SR)   Coulomb (SR)   Coul. recip.      Potential    Kinetic En.
    1.95187e+04   -8.28116e+05    9.50153e+03   -7.23750e+05    2.88369e+05
   Total Energy    Temperature Pressure (bar)   Constr. rmsd
   -4.35381e+05    3.80050e+02    1.86169e+00    0.00000e+00

          Box-X          Box-Y          Box-Z
    8.74843e+00    8.74843e+00    1.65248e+01

   Total Virial (kJ/mol)
    9.61747e+04   -5.61975e+01    5.63227e+01
   -5.64622e+01    9.59873e+04   -5.39434e+01
    5.55317e+01   -5.47385e+01    9.59996e+04

   Pressure (bar)
   -1.92889e+00    1.47305e+00   -1.72832e+00
    1.47998e+00    3.20218e+00    1.39809e+00
   -1.70747e+00    1.41899e+00    4.31177e+00

  Epot (kJ/mol)        Coul-SR          LJ-SR        Coul-14          LJ-14
        LUT-LUT   -2.67215e+04   -6.22858e+04    0.00000e+00    0.00000e+00
        LUT-SOL   -6.48580e+04   -2.11393e+04    0.00000e+00    0.00000e+00
         LUT-CL   -5.54079e+01   -2.73057e+01    0.00000e+00    0.00000e+00
       LUT-_WEO   -3.03022e+02   -2.60098e+03    0.00000e+00    0.00000e+00
        SOL-SOL   -7.25135e+05    1.06271e+05    0.00000e+00    0.00000e+00
         SOL-CL   -1.27842e+04    1.24717e+03    0.00000e+00    0.00000e+00
       SOL-_WEO   -7.17196e+02   -1.35715e+03    0.00000e+00    0.00000e+00
          CL-CL   -6.11818e+03   -1.05796e-01    0.00000e+00    0.00000e+00
        CL-_WEO   -1.52473e+01   -2.78267e+00    0.00000e+00    0.00000e+00
      _WEO-_WEO    8.59197e+03   -5.85988e+02   -1.54302e+03   -5.39996e+02

          T-LUT          T-SOL           T-CL         T-_WEO
    3.79947e+02    3.80100e+02    3.82212e+02    3.80384e+02
