Input Parameters:
   integrator                     = md
   tinit                          = 0
   dt                             = 0.002
   nsteps                         = 10000000
   init-step                      = 0
   simulation-part                = 1
   comm-mode                      = Linear
   nstcomm                        = 100
   bd-fric                        = 0
   ld-seed                        = -552300421
   emtol                          = 10
   emstep                         = 0.01
   niter                          = 20
   fcstep                         = 0
   nstcgsteep                     = 1000
   nbfgscorr                      = 10
   rtpi                           = 0.05
   nstxout                        = 1000000
   nstvout                        = 1000000
   nstfout                        = 0
   nstlog                         = 1000000
   nstcalcenergy                  = 100
   nstenergy                      = 1000000
   nstxout-compressed             = 1000000
   compressed-x-precision         = 1000
   cutoff-scheme                  = Verlet
   nstlist                        = 25
   ns-type                        = Grid
   pbc                            = xyz
   periodic-molecules             = false
   verlet-buffer-tolerance        = 0.005
   rlist                          = 1.219
   coulombtype                    = PME
   coulomb-modifier               = Potential-shift
   rcoulomb-switch                = 0
   rcoulomb                       = 1.2
   epsilon-r                      = 1
   epsilon-rf                     = inf
   vdw-type                       = Cut-off
   vdw-modifier                   = Potential-shift
   rvdw-switch                    = 0
   rvdw                           = 1.2
   DispCorr                       = No
   table-extension                = 1
   fourierspacing                 = 0.16
   fourier-nx                     = 60
   fourier-ny                     = 60
   fourier-nz                     = 108
   pme-order                      = 4
   ewald-rtol                     = 1e-05
   ewald-rtol-lj                  = 0.001
   lj-pme-comb-rule               = Geometric
   ewald-geometry                 = 0
   epsilon-surface                = 0
   implicit-solvent               = No
   gb-algorithm                   = Still
   nstgbradii                     = 1
   rgbradii                       = 1
   gb-epsilon-solvent             = 80
   gb-saltconc                    = 0
   gb-obc-alpha                   = 1
   gb-obc-beta                    = 0.8
   gb-obc-gamma                   = 4.85
   gb-dielectric-offset           = 0.009
   sa-algorithm                   = Ace-approximation
   sa-surface-tension             = 2.05016
   tcoupl                         = Berendsen
   nsttcouple                     = 10
   nh-chain-length                = 0
   print-nose-hoover-chain-variables = false
   pcoupl                         = No
   pcoupltype                     = Isotropic
   nstpcouple                     = -1
   tau-p                          = 1
   compressibility (3x3):
      compressibility[    0]={ 0.00000e+00,  0.00000e+00,  0.00000e+00}
      compressibility[    1]={ 0.00000e+00,  0.00000e+00,  0.00000e+00}
      compressibility[    2]={ 0.00000e+00,  0.00000e+00,  0.00000e+00}
   ref-p (3x3):
      ref-p[    0]={ 0.00000e+00,  0.00000e+00,  0.00000e+00}
      ref-p[    1]={ 0.00000e+00,  0.00000e+00,  0.00000e+00}
      ref-p[    2]={ 0.00000e+00,  0.00000e+00,  0.00000e+00}
   refcoord-scaling               = No
   posres-com (3):
      posres-com[0]= 0.00000e+00
      posres-com[1]= 0.00000e+00
      posres-com[2]= 0.00000e+00
   posres-comB (3):
      posres-comB[0]= 0.00000e+00
      posres-comB[1]= 0.00000e+00
      posres-comB[2]= 0.00000e+00
   QMMM                           = false
   QMconstraints                  = 0
   QMMMscheme                     = 0
   MMChargeScaleFactor            = 1
qm-opts:
   ngQM                           = 0
   constraint-algorithm           = Lincs
   continuation                   = false
   Shake-SOR                      = false
   shake-tol                      = 0.0001
   lincs-order                    = 4
   lincs-iter                     = 1
   lincs-warnangle                = 30
   nwall                          = 0
   wall-type                      = 9-3
   wall-r-linpot                  = -1
   wall-atomtype[0]               = -1
   wall-atomtype[1]               = -1
   wall-density[0]                = 0
   wall-density[1]                = 0
   wall-ewald-zfac                = 3
   pull                           = false
   rotation                       = false
   interactiveMD                  = false
   disre                          = No
   disre-weighting                = Conservative
   disre-mixed                    = false
   dr-fc                          = 1000
   dr-tau                         = 0
   nstdisreout                    = 100
   orire-fc                       = 0
   orire-tau                      = 0
   nstorireout                    = 100
   free-energy                    = no
   cos-acceleration               = 0
   deform (3x3):
      deform[    0]={ 0.00000e+00,  0.00000e+00,  0.00000e+00}
      deform[    1]={ 0.00000e+00,  0.00000e+00,  0.00000e+00}
      deform[    2]={ 0.00000e+00,  0.00000e+00,  0.00000e+00}
   simulated-tempering            = false
   E-x:
      n = 0
   E-xt:
      n = 0
   E-y:
      n = 0
   E-yt:
      n = 0
   E-z:
      n = 0
   E-zt:
      n = 0
   swapcoords                     = no
   userint1                       = 0
   userint2                       = 0
   userint3                       = 0
   userint4                       = 0
   userreal1                      = 0
   userreal2                      = 0
   userreal3                      = 0
   userreal4                      = 0
grpopts:
   nrdf:     65998.9      113818     89.9985     2609.96
   ref-t:         380         380         380         380
   tau-t:         0.1         0.1         0.1         0.1
annealing:          No          No          No          No
annealing-npoints:           0           0           0           0
   acc:	           0           0           0
   nfreeze:           N           N           N
   energygrp-flags[  0]: 0 0 0 0
   energygrp-flags[  1]: 0 0 0 0
   energygrp-flags[  2]: 0 0 0 0
   energygrp-flags[  3]: 0 0 0 0

Initializing Domain Decomposition on 128 ranks
Dynamic load balancing: auto
Initial maximum inter charge-group distances:
    two-body bonded interactions: 0.510 nm, Exclusion, atoms 15737 15738
  multi-body bonded interactions: 0.432 nm, Proper Dih., atoms 109137 109142
Minimum cell size due to bonded interactions: 0.476 nm
Maximum distance for 5 constraints, at 120 deg. angles, all-trans: 0.785 nm
Estimated maximum distance required for P-LINCS: 0.785 nm
This distance will limit the DD cell size, you can override this with -rcon
Guess for relative PME load: 0.14
Will use 96 particle-particle and 32 PME only ranks
This is a guess, check the performance at the end of the log file
Using 32 separate PME ranks, as guessed by mdrun
Scaling the initial minimum size with 1/0.8 (option -dds) = 1.25
Optimizing the DD grid for 96 cells with a minimum initial size of 0.981 nm
The maximum allowed number of cells is: X 9 Y 9 Z 17
Domain decomposition grid 8 x 4 x 3, separate PME ranks 32
PME domain decomposition: 8 x 4 x 1
Interleaving PP and PME ranks
This rank does only particle-particle work.

Domain decomposition rank 0, coordinates 0 0 0

The initial number of communication pulses is: X 2 Y 1 Z 1
The initial domain decomposition cell size is: X 1.12 nm Y 2.25 nm Z 5.67 nm

The maximum allowed distance for charge groups involved in interactions is:
                 non-bonded interactions           1.219 nm
            two-body bonded interactions  (-rdd)   1.219 nm
          multi-body bonded interactions  (-rdd)   1.125 nm
              virtual site constructions  (-rcon)  1.125 nm
  atoms separated by up to 5 constraints  (-rcon)  1.125 nm

When dynamic load balancing gets turned on, these settings will change to:
The maximum number of communication pulses is: X 2 Y 2 Z 2
The minimum size for domain decomposition cells is 0.785 nm
The requested allowed shrink of DD cells (option -dds) is: 0.80
The allowed shrink of domain decomposition cells is: X 0.70 Y 0.35 Z 0.14
The maximum allowed distance for charge groups involved in interactions is:
                 non-bonded interactions           1.219 nm
            two-body bonded interactions  (-rdd)   1.219 nm
          multi-body bonded interactions  (-rdd)   0.785 nm
              virtual site constructions  (-rcon)  0.785 nm
  atoms separated by up to 5 constraints  (-rcon)  0.785 nm

Using two step summing over 8 groups of on average 12.0 ranks

Using 128 MPI processes
Using 1 OpenMP thread per MPI process

Will do PME sum in reciprocal space for electrostatic interactions.

Will do ordinary reciprocal space Ewald sum.
Using a Gaussian width (1/beta) of 0.384195 nm for Ewald
Cut-off's:   NS: 1.219   Coulomb: 1.2   LJ: 1.2
System total charge: 0.000
Generated table with 1109 data points for 1-4 COUL.
Tabscale = 500 points/nm
Generated table with 1109 data points for 1-4 LJ6.
Tabscale = 500 points/nm
Generated table with 1109 data points for 1-4 LJ12.
Tabscale = 500 points/nm
Potential shift: LJ r^-12: -1.122e-01 r^-6: -3.349e-01, Ewald -1.000e-05
Initialized non-bonded Ewald correction tables, spacing: 1.02e-03 size: 1176

Using SIMD 4x4 non-bonded kernels

Using full Lennard-Jones parameter combination matrix

Removing pbc first time

Non-default thread affinity set probably by the OpenMP library,
disabling internal thread affinity

Initializing Parallel LINear Constraint Solver

The number of constraints is 34440
There are inter charge-group constraints,
will communicate selected coordinates each lincs iteration

Linking all bonded interactions to atoms
There are 18970 inter charge-group virtual sites,
will an extra communication step for selected coordinates and forces

Intra-simulation communication will occur every 5 steps.
Center of mass motion removal mode is Linear
We have the following groups for center of mass motion removal:
  0:  rest

There are: 91290 Atoms
There are: 18970 VSites
Atom distribution over 96 domains: av 1148 stddev 368 min 112 max 1561

Constraining the starting coordinates (step 0)

Constraining the coordinates at t0-dt (step 0)
RMS relative constraint deviation after constraining: 4.29e-05
Initial temperature: 379.585 K

Started mdrun on rank 0 Mon Jun 24 15:13:44 2019
           Step           Time
              0        0.00000

   Energies (kJ/mol)
       G96Angle    Proper Dih.  Improper Dih.          LJ-14     Coulomb-14
    7.53323e+02    4.66692e+01    1.11327e+03   -5.63080e+02   -1.56410e+03
        LJ (SR)   Coulomb (SR)   Coul. recip.      Potential    Kinetic En.
    8.99457e+04   -1.18822e+06    1.36634e+04   -1.08482e+06    2.88044e+05
   -7.96777e+05    3.79622e+02   -3.66380e+03    2.53061e-05

	<====  A V E R A G E S  ====>

	Statistics over 77093301 steps using 770934 frames

   Energies (kJ/mol)
       G96Angle    Proper Dih.  Improper Dih.          LJ-14     Coulomb-14
    4.14078e+04    7.14245e+02    3.52839e+04   -5.39974e+02   -1.54303e+03
        LJ (SR)   Coulomb (SR)   Coul. recip.      Potential    Kinetic En.
    2.28061e+04   -8.22579e+05    9.75748e+03   -7.14693e+05    2.88300e+05
   Total Energy    Temperature Pressure (bar)   Constr. rmsd
   -4.26393e+05    3.79959e+02   -1.12310e+02    0.00000e+00

   Total Virial (kJ/mol)
    1.00776e+05   -3.86653e+00    1.64245e+00
   -3.87333e+00    1.00782e+05    2.90846e+00
    1.69991e+00    3.01752e+00    1.00711e+05

   Pressure (bar)
   -1.13096e+02    9.58333e-02   -6.33629e-02
    9.59972e-02   -1.13250e+02   -6.11758e-02
   -6.47487e-02   -6.38062e-02   -1.10584e+02

  Epot (kJ/mol)        Coul-SR          LJ-SR        Coul-14          LJ-14
        LUT-LUT   -2.64145e+04   -5.98303e+04    0.00000e+00    0.00000e+00
        LUT-SOL   -6.04954e+04   -1.92096e+04    0.00000e+00    0.00000e+00
         LUT-CL   -4.93254e+01   -2.37106e+01    0.00000e+00    0.00000e+00
       LUT-_WEO   -2.94395e+02   -2.53422e+03    0.00000e+00    0.00000e+00
        SOL-SOL   -7.24275e+05    1.05107e+05    0.00000e+00    0.00000e+00
         SOL-CL   -1.28168e+04    1.23858e+03    0.00000e+00    0.00000e+00
       SOL-_WEO   -7.20770e+02   -1.34889e+03    0.00000e+00    0.00000e+00
          CL-CL   -6.09119e+03   -9.78770e-02    0.00000e+00    0.00000e+00
        CL-_WEO   -1.89119e+01   -3.30825e+00    0.00000e+00    0.00000e+00
      _WEO-_WEO    8.59663e+03   -5.89517e+02   -1.54303e+03   -5.39974e+02

          T-LUT          T-SOL           T-CL         T-_WEO
    3.79877e+02    3.80011e+02    3.79377e+02    3.79783e+02
